
Circuit: circuito req c3

Doing analysis at TEMP = 27.000000 and TNOM = 27.000000


No. of Data Rows : 1
reqc3_TAB
Req C3 = 9.81818
reqc3_END
ngspice-31 done
