
Circuit: circuito req c1

Doing analysis at TEMP = 27.000000 and TNOM = 27.000000


No. of Data Rows : 1
reqc1_TAB
Req C1 = 4735.29
reqc1_END
ngspice-31 done
