
Circuit: circuito req c2

Doing analysis at TEMP = 27.000000 and TNOM = 27.000000


No. of Data Rows : 1
reqc2_TAB
Req C2 = 100
reqc2_END
ngspice-31 done
